Completed: ngspice -b -r /home/ttuser/.xschem/simulations/Inverter_test.raw /home/ttuser/.xschem/simulations/Inverter_test.spice
stderr:
Warning: m=xx on .subckt line will override multiplier m hierarchy!

data:

Note: Compatibility modes selected: hs a


Circuit: ** sch_path: /home/ttuser/documents/saradc/xschem/inverter_test.sch

option SCALE: Scale is set to 1e-06 for instance and model parameters
binary raw file "/home/ttuser/.xschem/simulations/Inverter_test.raw"
Doing analysis at TEMP = 27.000000 and TNOM = 27.000000

Using SPARSE 1.3 as Direct Linear Solver
No. of Data Columns : 12  

No. of Data Rows : 19

Total analysis time (seconds) = 0.00967734

Total elapsed time (seconds) = 1.770 

Total DRAM available = 7937.484 MB.
DRAM currently available = 4630.586 MB.
Maximum ngspice program size =   98.547 MB.
Current ngspice program size =   33.613 MB.

Shared ngspice pages =   10.840 MB.
Text (code) pages =    6.473 MB.
Stack = 0 bytes.
Library pages =   79.070 MB.

